data/ENWL/enwl_phase_to_neutral_embedded/network_15/Feeder_7/LineCode.txt
! Subset of available target linecodes, which are closest to the original ones in terms of positive sequence impedance
! -------------------------------------------------------------------------------------------------------------------------------------------------------------------------------------------------
! original name: BS 5467 1997 table 10 16 (50 Hz)
New LineCode.LC1 nphases=3 Units=km
~ Rmatrix=(2.303594 1.151967 1.1516279999999999 | 1.151967 2.303933 1.151967 | 1.151628 1.151967 2.3035940000000004)
~ Xmatrix=(0.16001100000000013 0.10397500000000004 0.05604100000000001 | 0.10397500000000004 0.20795099999999989 0.10397199999999995 | 0.05604100000000001 0.10397199999999995 0.16000599999999998)
~ Cmatrix=(0.0 0.0 0.0 | 0.0 0.0 0.0 | 0.0 0.0 0.0)

! original name: BS 5467 1997 table 10 25 (50 Hz)
New LineCode.LC2 nphases=3 Units=km
~ Rmatrix=(1.455197 0.7279920000000001 0.7272050000000001 | 0.7279920000000001 1.4559830000000002 0.727991 | 0.7272050000000001 0.727991 1.455196)
~ Xmatrix=(0.14471900000000004 0.096742 0.047987 | 0.096742 0.19347400000000003 0.0967420000000001 | 0.047987 0.0967420000000001 0.14473400000000003)
~ Cmatrix=(0.0 0.0 0.0 | 0.0 0.0 0.0 | 0.0 0.0 0.0)

! original name: BS 6480 1988 table 17 Cu 16 (50 Hz)
New LineCode.LC6 nphases=3 Units=km
~ Rmatrix=(2.305147 1.1534 1.151747 | 1.1534 2.3068009999999997 1.1534 | 1.151747 1.1534 2.305148)
~ Xmatrix=(0.16893999999999987 0.11444699999999997 0.05449899999999985 | 0.11444699999999997 0.22889099999999996 0.114448 | 0.05449899999999985 0.114448 0.1689449999999999)
~ Cmatrix=(0.0 0.0 0.0 | 0.0 0.0 0.0 | 0.0 0.0 0.0)

! original name: Waveform 4-core 300 IEC 60287 (50 Hz)
New LineCode.LC8 nphases=3 Units=km
~ Rmatrix=(0.21331199999999995 0.10665599999999997 0.10665599999999997 | 0.10665599999999997 0.21331199999999995 0.10665599999999997 | 0.10665599999999997 0.10665599999999997 0.21331199999999995)
~ Xmatrix=(0.12119600000000008 0.082565 0.03863100000000008 | 0.082565 0.16513 0.082565 | 0.03863100000000008 0.082565 0.12119600000000008)
~ Cmatrix=(0.0 0.0 0.0 | 0.0 0.0 0.0 | 0.0 0.0 0.0)

! original name: Waveform 4-core 95 IEC 60287 (50 Hz)
New LineCode.LC9 nphases=3 Units=km
~ Rmatrix=(0.6456139999999999 0.32280699999999996 0.32280699999999996 | 0.32280699999999996 0.6456139999999999 0.32280699999999996 | 0.32280699999999996 0.32280699999999996 0.6456139999999999)
~ Xmatrix=(0.1230420000000001 0.08350800000000003 0.03953400000000007 | 0.08350800000000003 0.16701600000000005 0.08350800000000003 | 0.03953400000000007 0.08350800000000003 0.1230420000000001)
~ Cmatrix=(0.0 0.0 0.0 | 0.0 0.0 0.0 | 0.0 0.0 0.0)
! -------------------------------------------------------------------------------------------------------------------------------------------------------------------------------------------------